<?xml version="1.0" encoding="UTF-8"?>

<!-- generated on 2025-04-12 08:01:00 by Eclipse SUMO netedit Version 1.22.0
-->

<additional xmlns:xsi="http://www.w3.org/2001/XMLSchema-instance" xsi:noNamespaceSchemaLocation="http://sumo.dlr.de/xsd/additional_file.xsd">
    <!-- StoppingPlaces -->
    <parkingArea id="0" lane="735173276#0_0" startPos="30.52" endPos="35.52" friendlyPos="true" roadsideCapacity="1" onRoad="1" length="5.00"/>
    <parkingArea id="1" lane="608355942_0" startPos="22.89" endPos="27.89" friendlyPos="true" roadsideCapacity="1" onRoad="1" length="5.00"/>
    <parkingArea id="2" lane="-5670226#1_0" startPos="125.64" endPos="130.64" friendlyPos="true" roadsideCapacity="1" onRoad="1" length="5.00"/>
    <parkingArea id="3" lane="-455688156_0" startPos="111.07" endPos="116.07" friendlyPos="true" roadsideCapacity="1" onRoad="1" length="5.00"/>
    <parkingArea id="4" lane="165473832#3_0" startPos="202.81" endPos="207.81" friendlyPos="true" roadsideCapacity="1" onRoad="1" length="5.00"/>
    <chargingStation id="0" lane="735173276#0_0" startPos="30.52" endPos="35.52" power="10000.00"/>
    <chargingStation id="1" lane="608355942_0" startPos="22.89" endPos="27.89" power="10000.00"/>
    <chargingStation id="2" lane="-5670226#1_0" startPos="125.64" endPos="130.64" power="10000.00"/>
    <chargingStation id="3" lane="-455688156_0" startPos="111.07" endPos="116.07" power="10000.00"/>
    <chargingStation id="4" lane="165473832#3_0" startPos="202.81" endPos="207.81" power="10000.00"/>
</additional>
