<?xml version="1.0" encoding="UTF-8"?>

<!-- generated on 2025-04-13 22:48:24 by Eclipse SUMO netedit Version 1.22.0
-->

<additional xmlns:xsi="http://www.w3.org/2001/XMLSchema-instance" xsi:noNamespaceSchemaLocation="http://sumo.dlr.de/xsd/additional_file.xsd">
    <!-- StoppingPlaces -->
    <parkingArea id="0" lane="gneE24_0" startPos="17.13" endPos="22.13" friendlyPos="true" roadsideCapacity="1" onRoad="1" length="5.00"/>
    <parkingArea id="1" lane="-gneE58_0" startPos="30.19" endPos="35.19" friendlyPos="true" roadsideCapacity="1" onRoad="1" length="5.00"/>
    <parkingArea id="2" lane="-gneE22_0" startPos="17.49" endPos="22.49" friendlyPos="true" roadsideCapacity="1" onRoad="1" length="5.00"/>
    <parkingArea id="3" lane="-gneE3_0" startPos="30.23" endPos="35.23" friendlyPos="true" roadsideCapacity="1" onRoad="1" length="5.00"/>
    <parkingArea id="4" lane="-gneE41_0" startPos="207.01" endPos="212.01" friendlyPos="true" roadsideCapacity="1" onRoad="1" length="5.00"/>
    <parkingArea id="5" lane="gneE28_0" startPos="75.68" endPos="80.68" friendlyPos="true" roadsideCapacity="1" onRoad="1" length="5.00"/>
    <parkingArea id="6" lane="-gneE64_0" startPos="50.40" endPos="55.40" friendlyPos="true" roadsideCapacity="1" onRoad="1" length="5.00"/>
    <chargingStation id="0" lane="gneE24_0" startPos="17.13" endPos="22.13" power="100000.00"/>
    <chargingStation id="1" lane="-gneE58_0" startPos="30.19" endPos="35.19" power="100000.00"/>
    <chargingStation id="2" lane="-gneE22_0" startPos="17.49" endPos="22.49" power="100000.00"/>
    <chargingStation id="3" lane="-gneE3_0" startPos="30.23" endPos="35.23" power="100000.00"/>
    <chargingStation id="4" lane="-gneE41_0" startPos="207.01" endPos="212.01" power="100000.00"/>
    <chargingStation id="5" lane="gneE28_0" startPos="75.68" endPos="80.68" power="100000.00"/>
    <chargingStation id="6" lane="-gneE64_0" startPos="50.40" endPos="55.40" power="100000.00"/>
</additional>
