<?xml version="1.0" encoding="UTF-8"?>

<!-- generated on 2025-04-10 20:10:23 by Eclipse SUMO duarouter Version 1.22.0
<duarouterConfiguration xmlns:xsi="http://www.w3.org/2001/XMLSchema-instance" xsi:noNamespaceSchemaLocation="http://sumo.dlr.de/xsd/duarouterConfiguration.xsd">

    <input>
        <net-file value="berlin.net.xml"/>
        <route-files value="trips.trips.xml"/>
    </input>

    <output>
        <output-file value="berlin_ev.rou.xml"/>
    </output>

</duarouterConfiguration>
-->

<routes xmlns:xsi="http://www.w3.org/2001/XMLSchema-instance" xsi:noNamespaceSchemaLocation="http://sumo.dlr.de/xsd/routes_file.xsd">
  <vType id="EV_evehicle" vClass="evehicle" minGap="2.50" maxSpeed="29.06" color="white" accel="1.0" decel="1.0" sigma="0.0" emissionClass="Energy/unknown" length="5.0">
        <param key="has.battery.device" value="true"/>
        <param key="airDragCoefficient" value="0.35"/>       <!-- https://www.evspecifications.com/en/model/e94fa0 -->
        <param key="constantPowerIntake" value="100"/>       <!-- observed summer levels -->
        <param key="frontSurfaceArea" value="2.6"/>          <!-- computed (ht-clearance) * width -->
        <param key="rotatingMass" value="0.01"/>             <!-- guesstimate -->
        <param key="device.battery.capacity" value="2000"/> <!-- was: 64000 -->
        <param key="maximumPower" value="150000"/>           <!-- website as above -->
        <param key="propulsionEfficiency" value=".98"/>      <!-- guesstimate value providing closest match to observed -->
        <param key="radialDragCoefficient" value="0.1"/>     <!-- as above -->
        <param key="recuperationEfficiency" value=".96"/>    <!-- as above -->
        <param key="rollDragCoefficient" value="0.01"/>      <!-- as above -->
        <param key="stoppingThreshold" value="0.1"/>         <!-- as above -->
        <param key="Mass" value="1830"/>              <!-- 1682kg curb wt + average 2 passengers / bags -->
        <param key="device.battery.chargeLevel" value="-1"/>      <!-- set to -1 so that you can reset each vehicle in flow to a random value at the start -->
        <param key="collisionMinGapFactor" value="1.0"/>
  </vType>
  <vehicle id="EV0" type="EV_evehicle" depart="0.00">
    <route edges="166260140 4396551 435042786 168934839#0 168934839#1 168934839#2 37289166 -160971199#3 -160971199#2 -160971199#1 -160971199#0 55495482#0 55495482#1 55495482#2 28108856#0 28108856#1 28108856#2 909825435 1157437719 48859718#0 159081771 E23 E24 4588215#1 4588215#2 4588215#3 710761406#0 710761406#1 197160273#0 197160273#1 197160273#2 335462921#0 335462921#1 335462921#2 1110753082 1110753055#0 1110753055#1 1110753055#2 1110753055#3 -1110753055#3 -1110753055#2 -1110753055#1"/>
    <param key="device.battery.chargeLevel" value="-1"/>
  </vehicle>
  <vehicle id="EV1" type="EV_evehicle" depart="0.00">
    <route edges="-4611869#3 -4611869#2 -4611869#1 -4611869#0 -8004043 24214089#3 24214089#4 11845212 328064918#0 328064918#1 328064918#2 67713120 159081774#0 159081774#1 710761408#0 710761408#1 710761408#2 36259518 935142777#0 935142777#1 935142777#2 935142777#3 48859715#0 48859715#1 48859715#2 48859715#3 48859715#4 168928174 1151333061#0 1151333061#1 533509622 1110746456 1151333060 1151333059#0 -320462166"/>
    <param key="device.battery.chargeLevel" value="-1"/>
  </vehicle>
  <vehicle id="EV2" type="EV_evehicle" depart="0.00">
    <route edges="335462921#1 335462921#2 1110753082 1110753055#0 1110753055#1 1110753055#2 1110753055#3 -505526660#2 -505526660#1 -505526660#0 -356359316#3 -356359316#2 -356359316#1 -356359316#0 -453379904 -4396109 159081773 404598738#0 404598738#1 404598738#2 4396116 404598740 4396503#0 4396503#1 11845184#0 11845184#1 11845184#2 11845184#3 11845184#4 1147755010 1147755011 1147755009 -8004042 -838233264 -26491989#5 -26491989#4 -26491989#3 -26491989#2 26491991#1"/>
    <param key="device.battery.chargeLevel" value="-1"/>
  </vehicle>
  <vehicle id="EV3" type="EV_evehicle" depart="0.00">
    <route edges="505526660#0 505526660#1 505526660#2 -505526660#2 -505526660#1 -505526660#0 -356359316#3 -356359316#2 -356359316#1 -356359316#0 -453379904 -4396109 159081773 404598738#0 404598738#1 404598738#2 4396116 404598740 4396503#0 4396503#1 11845184#0 4611869#0 4611869#1 4611869#2 4611869#3 4611869#4 4611869#5 1147767967 1147767966#0 1147767966#1 1147767969 1147767968#0 1147767968#1 1147767968#2 1147767973 1147767977#0 1147767977#1 1147767977#2 -1147767978"/>
    <param key="device.battery.chargeLevel" value="-1"/>
  </vehicle>
  <vehicle id="EV4" type="EV_evehicle" depart="0.00">
    <route edges="1124673999 24214089#1 24214089#2 24214089#3 24214089#4 11845212 328064918#0 328064918#1 328064918#2 67713120 159081774#0 159081774#1 -168927294 -1152880160 -9657820#1 -9657820#0 -1152880161 -E5 -E4 -E1 -159081776 160971199#0 160971199#1 160971199#2 160971199#3 -37289166 -327462545#2 -327462545#1 -327462545#0 -1121496496"/>
    <param key="device.battery.chargeLevel" value="-1"/>
  </vehicle>
  <!-- <vehicle id="EV5" type="EV_evehicle" depart="0.00">
    <route edges="-356359316#1 -356359316#0 -453379904 -4396109 159081773 404598738#0 404598738#1 404598738#2 4396116 404598740 4396503#0 4396503#1 11845184#0 4611869#0 4611869#1 4611869#2 4611869#3 4611869#4 4611869#5 1147767967 1147767966#0 1147767966#1 1147767969 1147767968#0 1147767968#1 1147767968#2 1147767973 1147767977#0 1147767977#1 1147767977#2 1147767977#3 1147767977#4"/>
    <param key="device.battery.chargeLevel" value="-1"/>
  </vehicle>
  <vehicle id="EV6" type="EV_evehicle" depart="0.00">
    <route edges="-1110753055#3 -1110753055#2 -1110753055#1 -1110753055#0 -1110753082 -335462921#2 -335462921#1 -335462921#0 -197160273#2 -197160273#1 -197160273#0 -710761406#1 -710761406#0 -4588215#3 -4588215#2 -4588215#1 -E24 -E23 -159081771 48859718#1 48859718#2 48859718#3 36259520#0 36259520#1 909825433 404598740 4396503#0 4396503#1 11845184#0 11845184#1 11845184#2 11845184#3 11845184#4 1147755010 1147755011 1147755009 -8004042 -838233264 -26491989#5 -26491989#4 -26491989#3 -26491989#2 -26491989#1"/>
    <param key="device.battery.chargeLevel" value="-1"/>
  </vehicle>
  <vehicle id="EV7" type="EV_evehicle" depart="0.00">
    <route edges="181472197#0 181472197#1 909825429 24214089#4 8004044 11845184#0 11845184#1 11845184#2 11845184#3 11845184#4 1147755010 1147755011 1147755009 1147755006#0 1147755006#1 1147755005#0 1147755005#1 1147755005#2 1147755004 1147755003#0 1147755003#1 24214090#0 24214090#1 328064930#0 328064930#1 328064930#2 -466891839#2 -466891839#1 -466891839#0 -1147768017#2 -1147768017#1 -1147768017#0 -4611862#1 -4611862#0 -1147768018#2 -1147768018#1 -1147768018#0 1147768018#0"/>
    <param key="device.battery.chargeLevel" value="-1"/>
  </vehicle>
  <vehicle id="EV8" type="EV_evehicle" depart="0.00">
    <route edges="-356359316#2 -356359316#1 -356359316#0 -453379904 -4396109 159081773 404598738#0 404598738#1 404598738#2 159081774#0 159081774#1 710761408#0 710761408#1 710761408#2 -159081771 159081771"/>
    <param key="device.battery.chargeLevel" value="-1"/>
  </vehicle>
  <vehicle id="EV9" type="EV_evehicle" depart="0.00">
    <route edges="4597325#0.94 4597325#00 4597325#01 4597325#1 1110752772 1110752826 710761407#0 710761407#1 710761407#2 -197160273#2 -197160273#1 -197160273#0 -710761406#1 -710761406#0 -4588215#3 -4588215#2 -4588215#1 -E24 -E23 -159081771 48859718#1 48859718#2 48859718#3 36259520#0 36259520#1 909825433 404598740 4396503#0 4396503#1 11845184#0 11845184#1 11845184#2 11845184#3 11845184#4 1147755010 1147755011 1147755009 1147755006#0 1147755006#1 1147755005#0 1147755005#1 1147755005#2 1147755004 1147755003#0 1147755003#1 24214090#0 24214090#1 328064930#0 328064930#1 328064930#2 -466891839#2 -466891839#1 -466891839#0 -1147768017#2 -1147768017#1 -1051546234"/>
    <param key="device.battery.chargeLevel" value="-1"/>
  </vehicle>
  <vehicle id="EV10" type="EV_evehicle" depart="0.00">
    <route edges="4597324#3 -4588215#3 -4588215#2 -4588215#1 -E24 -E23 -159081771 48859718#1 48859718#2 48859718#3 36259520#0 36259520#1 909825433 67718316#0 67718316#1 36259509#0 36259509#1 36259509#2 309644159#0 309644159#1 309644159#2 309644159#3 37933094#0 37933094#1 37933094#2 309644163#0"/>
    <param key="device.battery.chargeLevel" value="-1"/>
  </vehicle>
  <vehicle id="EV11" type="EV_evehicle" depart="0.00">
    <route edges="-8004042 328064919#2 1147755012 24214089#0 24214089#1 24214089#2 24214089#3 24214089#4 11845212 328064918#0 328064918#1 328064918#2 67713120 159081774#0 159081774#1 -168927294 -1152880160 -9657820#1 -9657820#0 -1152880161 -1152880162"/>
    <param key="device.battery.chargeLevel" value="-1"/>
  </vehicle>
  <vehicle id="EV12" type="EV_evehicle" depart="0.00">
    <route edges="85255869#1 85255869#2 1110752486 1110752632#0 1110752632#1 1110752772 1110752826 710761407#0 710761407#1 710761407#2 -197160273#2 -197160273#1 -197160273#0 -710761406#1 -710761406#0 -4588215#3 -4588215#2 -4588215#1 -E24 -E23 -159081771 48859718#1 48859718#2 48859718#3 36259520#0 36259520#1 909825433 404598740 4396503#0 4396503#1 11845184#0 11845184#1 11845184#2 11845184#3 11845184#4 1147755010 1147755011 1147755009 1147755006#0 1147755006#1 -1124674005 843876010 691051319#0 691051319#1 691051319#2 -691051319#2"/>
    <param key="device.battery.chargeLevel" value="-1"/>
  </vehicle>
  <vehicle id="EV13" type="EV_evehicle" depart="0.00">
    <route edges="-1147767993 -1147767994 -31416317#5 -31416317#4 -686318716 686318716 31416317#4 31416317#5 1147767994 1147767993 -1147767989#0 -1147767982#1 -1147767982#0 -1147767987"/>
    <param key="device.battery.chargeLevel" value="-1"/>
  </vehicle>
  <vehicle id="EV14" type="EV_evehicle" depart="0.00">
    <route edges="466891838#2 466891838#3 1147755017#0 1147755017#1 1147755016 1147755014#0 1147755014#1 1147755014#2 1147755013#0 1147755013#1 328064919#0 328064919#1 328064919#2 1147755012 24214089#0 24214089#1 24214089#2 24214089#3 24214089#4 11845212 328064918#0 328064918#1 328064918#2 67713120 159081774#0 159081774#1 710761408#0 710761408#1 710761408#2 -159081771 159081775 159081777#3 159081777#0 159081778"/>
    <param key="device.battery.chargeLevel" value="-1"/>
  </vehicle>
  <vehicle id="EV15" type="EV_evehicle" depart="0.00">
    <route edges="4597325#0 4597325#0.61 4597325#0.94 4597325#00 4597325#01 4597325#1 1110752772 1110752826 710761407#0 710761407#1 710761407#2 335462921#0 335462921#1"/>
    <param key="device.battery.chargeLevel" value="-1"/>
  </vehicle>
  <vehicle id="EV16" type="EV_evehicle" depart="0.00">
    <route edges="1147768006#2 1147768006#3 1147768006#4 1147768006#5 1147768006#6 -1147767897#2 -1147767897#1 -1147767897#0 -4611860#6 -4611860#5 -4611860#4 -4611860#3 -4611860#2 -4611860#1 -4611860#0 -1147767890 -8004042 328064919#2 1147755012 24214089#0 24214089#1 24214089#2 24214089#3 24214089#4 11845212 328064918#0 328064918#1 328064918#2 67713120 4396116 67718316#0 67718316#1 36259509#0 36259509#1 36259509#2 309644159#0 720031552 37289167#2 E0"/>
    <param key="device.battery.chargeLevel" value="-1"/>
  </vehicle>
  <vehicle id="EV17" type="EV_evehicle" depart="0.00">
    <route edges="1046171603 10461716030 26491989#5 838233264 328064919#2 1147755012 24214089#0 24214089#1 24214089#2 24214089#3 24214089#4 8004044 159081779 176043805 11845130 475533029 475533030#0 475533030#1 11480408"/>
    <param key="device.battery.chargeLevel" value="-1"/>
  </vehicle>
  <vehicle id="EV18" type="EV_evehicle" depart="0.00">
    <route edges="4611863 466891838#0 466891838#1 466891838#2 466891838#3 1147755017#0 1147755017#1 1147755016 1147755014#0 1147755014#1 1147755014#2 1147755013#0 1147755013#1 328064919#0 328064919#1 328064919#2 1147755012 24214089#0 24214089#1 24214089#2 24214089#3 24214089#4 11845212 328064918#0 328064918#1 328064918#2 67713120 4396116 67718316#0 67718316#1 36259509#0 36259509#1 36259509#2 309644159#0 309644159#1 309644159#2 309644159#3 160971191#0 160971191#1 160971191#2 160971198#0 160971198#1"/>
    <param key="device.battery.chargeLevel" value="-1"/>
  </vehicle>
  <vehicle id="EV19" type="EV_evehicle" depart="0.00">
    <route edges="475530941 475530944 -475533030#1 -475533030#0 475533028 -11845130 -176043805 -159081779 11845184#0"/>
    <param key="device.battery.chargeLevel" value="-1"/>
  </vehicle>
  <vehicle id="EV21" type="EV_evehicle" depart="0.00">
    <route edges="-453379904 -4396109 159081773 404598738#0 404598738#1 404598738#2 4396116 404598740 4396503#0 4396503#1 11845184#0 4611869#0 4611869#1 -1147767961 -1147767962 -1147767963 1147767963 1147767962 1147767961 -4611869#1"/>
    <param key="device.battery.chargeLevel" value="-1"/>
  </vehicle>
  <vehicle id="EV22" type="EV_evehicle" depart="0.00">
    <route edges="-1147767977#7 -1147767977#6 -1147767977#5 -1147767977#4 -1147767977#3 -1147767977#2 -4611867#4 -4611867#3 -4611867#2 -4611867#1 -4611867#0 -1147768006#6 -1147768006#5 -1147768006#4 -1147768006#3 -1147768006#2 -1147768006#1 -1147768006#0 -1147768007#1 -1147768007#0 -466891841#2 -466891841#1 -466891841#0 35440679 -35440679"/>
    <param key="device.battery.chargeLevel" value="-1"/>
  </vehicle>
  <vehicle id="EV23" type="EV_evehicle" depart="0.00">
    <route edges="-1147768006#2 -1147768002 1147768002 1147768006#2 1147768006#3 1147768006#4 1147768006#5 1147768006#6 -1147767897#2 -1147767897#1 -1147767897#0 -4611860#6"/>
    <param key="device.battery.chargeLevel" value="-1"/>
  </vehicle>
  <vehicle id="EV24" type="EV_evehicle" depart="0.00">
    <route edges="160971204#1 160971194#0 160971194#1 160971194#2 160971194#3 160971193 37289167#0 37289167#1 37289167#2 37289167#3 37289167#4 37289167#5 36259516#0 36259516#1 36259516#2 404598739 67713120 159081774#0 159081774#1 710761408#0 710761408#1 710761408#2 E23 E24 4588215#1 4588215#2 4588215#3 710761406#0 710761406#1 197160273#0 197160273#1 197160273#2 -710761407#2 -710761407#1 -710761407#0 -1110752826 -1110752772 -1110752632#1 -1110752632#0 -1110752486 -85255869#2 -85255869#1"/>
    <param key="device.battery.chargeLevel" value="-1"/>
  </vehicle>
  <vehicle id="EV25" type="EV_evehicle" depart="0.00">
    <route edges="-E24 -E23 -159081771 48859718#1 48859718#2 48859718#3 36259520#0 36259520#1 909825433 67718316#0 67718316#1 36259509#0 36259509#1 36259509#2 309644159#0 309644159#1 309644159#2 309644159#3 37933094#0 160971193 27063550#0 27063550#1 27063550#2 531952567 -531952567 -27063550#2 -27063550#1 -27063550#0"/>
    <param key="device.battery.chargeLevel" value="-1"/>
  </vehicle>
  <vehicle id="EV26" type="EV_evehicle" depart="0.00">
    <route edges="-4611867#1 -4611867#0 -1147768006#6 -1147768006#5 -1147768006#4 -1147768006#3 -1147768006#2 -1147768006#1 -1147768006#0 -1147768007#1 1147768004 730167739#0 730167739#1 730167739#2"/>
    <param key="device.battery.chargeLevel" value="-1"/>
  </vehicle>
  <vehicle id="EV27" type="EV_evehicle" depart="0.00">
    <route edges="176043797 36992116 935142777#3 36992117 25776568#0 25776568#1 -55495482#2 -55495482#1 -55495482#0 160971199#0 160971199#1 160971199#2 160971199#3 -37289166 160971204#0 160971204#1 160971194#0 160971194#1 160971194#2 160971194#3 160971193 160971203 160971191#0"/>
    <param key="device.battery.chargeLevel" value="-1"/>
  </vehicle>
  <vehicle id="EV28" type="EV_evehicle" depart="0.00">
    <route edges="-176501670 1147768018#0 1147768018#1 1147768018#2 4611862#0 4611862#1 1147768017#0 1147768017#1 1147768017#2 466891839#0 466891839#1 466891839#2 4611863 466891838#0 466891838#1 466891838#2 466891838#3 1147755017#0 1147755017#1 1147755016 1147755014#0 1147755014#1 1147755014#2 1147755013#0 1147755013#1 328064919#0 328064919#1 328064919#2 1147755012 24214089#0 24214089#1 24214089#2 24214089#3 24214089#4 11845212 328064918#0 328064918#1 328064918#2 67713120 159081774#0 159081774#1 710761408#0 710761408#1 710761408#2 E23 E24 4588215#1 4588215#2 4588215#3 710761406#0 710761406#1 197160273#0 197160273#1 197160273#2 335462921#0 335462921#1"/>
    <param key="device.battery.chargeLevel" value="-1"/>
  </vehicle>
  <vehicle id="EV29" type="EV_evehicle" depart="0.00">
    <route edges="-160971199#2 -160971199#1 -160971199#0 160971199#0 160971199#1 160971199#2 160971199#3 -37289166 160971204#0 160971204#1 160971194#0 160971194#1 160971194#2 160971194#3 160971193 27063550#0 27063550#1 27063550#2 531952567 4597336 -E3 -E2"/>
    <param key="device.battery.chargeLevel" value="-1"/>
  </vehicle>
  <vehicle id="EV30" type="EV_evehicle" depart="0.00">
    <route edges="E24 4588215#1 4588215#2 4588215#3 -4588215#3 -4588215#2 -4588215#1 -E24 -E23 -159081771 48859718#1 48859718#2 48859718#3 36259520#0 36259520#1 909825433 404598740 4396503#0 4396503#1 11845184#0 11845184#1 11845184#2 11845184#3 11845184#4 1147755010 1147755011 1147755009 1147755006#0 1147755006#1 1147755005#0 175671153"/>
    <param key="device.battery.chargeLevel" value="-1"/>
  </vehicle>
  <vehicle id="EV31" type="EV_evehicle" depart="0.00">
    <route edges="1147768021 4611865#1 1147768020 35440679 128385951 466891838#2 466891838#3 1147755017#0 1147755017#1 1147755016 1147755014#0 1147755014#1 1147755014#2 1147755013#0 1147755013#1 328064919#0 328064919#1 8004042 1147767890 4611860#0 4611860#1 4611860#2 4611860#3 49937638 49937639 49937640 272030162"/>
    <param key="device.battery.chargeLevel" value="-1"/>
  </vehicle>
  <vehicle id="EV33" type="EV_evehicle" depart="0.00">
    <route edges="-4579366 1152880160 36259520#0 36259520#1 909825433 67718316#0 67718316#1 36259509#0 36259509#1 36259509#2 309644159#0 720031552 37289167#2 E0 E20 E3 4597335#2 -1124627670#1"/>
    <param key="device.battery.chargeLevel" value="-1"/>
  </vehicle>
  <vehicle id="EV34" type="EV_evehicle" depart="0.00">
    <route edges="-63961509 1124627670#1 1124627670#2 1124627671 4597334 -4597334"/>
    <param key="device.battery.chargeLevel" value="-1"/>
  </vehicle>
  <vehicle id="EV35" type="EV_evehicle" depart="0.00">
    <route edges="-327462545#2 -327462545#1 -327462545#0 -1121496496 1121496496 327462545#0 327462545#1 327462545#2 37289166 -160971199#3 -160971199#2 -160971199#1 -160971199#0 159081776 E1 E6 E5 1152880161 9657820#0 9657820#1 1152880160 36259520#0 36259520#1 909825433 404598740 4396503#0 4396503#1 11845184#0 11845184#1 11845184#2 11845184#3 11845184#4 1147755010 1147755011 1147755009 -8004042 8004042"/>
    <param key="device.battery.chargeLevel" value="-1"/>
  </vehicle>
  <vehicle id="EV36" type="EV_evehicle" depart="0.00">
    <route edges="48859715#4 -4597319 320420912#0 320420912#1 320420912#2 785302396#0 785302396#1 176043797 909825435 1157437719 48859718#0 48859718#1 48859718#2 48859718#3 36259520#0 36259520#1 909825433 404598740 4396503#0 4396503#1 11845184#0 11845184#1 11845184#2 11845184#3 11845184#4 1147755010 1147755011 1147755009 1147767890 4611860#0 4611860#1 4611860#2 4611860#3 49937638 49937639 49937640 272030162 -272030162 -49937640 -49937639 -49937638"/>
    <param key="device.battery.chargeLevel" value="-1"/>
  </vehicle>
  <vehicle id="EV37" type="EV_evehicle" depart="0.00">
    <route edges="197160273#2 -197160273#2 -197160273#1 -197160273#0 -710761406#1 -710761406#0 -4588215#3 -4588215#2 -4588215#1 -E24 -E23 -159081771 48859718#1 48859718#2 48859718#3 36259520#0 36259520#1 909825433 404598740 4396503#0 4396503#1 11845184#0 11845184#1 11845184#2 11845184#3 11845184#4 1147755010 1147755011 1147755009 1147755006#0 1147755006#1 1147755005#0 1147755005#1 1147755005#2 1147755004 1147755003#0 1147755003#1 24214090#0 24214090#1 328064930#0 328064930#1 328064930#2 4611863 1057138146#0 1057138146#1 1057138146#2"/>
    <param key="device.battery.chargeLevel" value="-1"/>
  </vehicle>
  <vehicle id="EV38" type="EV_evehicle" depart="0.00">
    <route edges="686318710 -1147767982#1 -1147767982#0 -1147767977#7 -1147767977#6 -1147767977#5 -1147767977#4 -1147767977#3 -1147767977#2 -1147767977#1 -1147767977#0 -1147767973 -1147767968#2 -1147767968#1 -1147767968#0 -1147767969 -1147767966#1 -1147767966#0 -1147767967 -4611869#5 -4611869#4 -4611869#3 -4611869#2 -4611869#1 -4611869#0 11845184#1 11845184#2 11845184#3 11845184#4 1147755010 1147755011 1147755009 1147755006#0 1147755006#1 1147755005#0 1147755005#1 -415424143 1147755013#0 1147755013#1"/>
    <param key="device.battery.chargeLevel" value="-1"/>
  </vehicle>
  <vehicle id="EV39" type="EV_evehicle" depart="0.00">
    <route edges="-4611863 4611863 466891838#0 466891838#1 466891838#2 466891838#3 1147755017#0 1147755017#1 1147755016 1147755014#0 1147755014#1 1147755014#2 1147755013#0 1147755013#1 328064919#0 328064919#1 328064919#2 1147755012 24214089#0 24214089#1 24214089#2 24214089#3 24214089#4 11845212 328064918#0 328064918#1 328064918#2 67713120 159081774#0 159081774#1 710761408#0 710761408#1 710761408#2 E23 E24 4588215#1 4588215#2 4588215#3 -4588215#3 -4588215#2 -4588215#1"/>
    <param key="device.battery.chargeLevel" value="-1"/>
  </vehicle>
  <vehicle id="EV40" type="EV_evehicle" depart="0.00">
    <route edges="1151333060 1151333059#0 1151333059#1 1079386620#0 1079386620#1 1079386620#2 1079386620#3 85255869#0 85255869#1 85255869#2 1110752486 1110752632#0 1110752632#1 -4597325#1 -4597325#0 -4597325#0.11 -4597325#0.18"/>
    <param key="device.battery.chargeLevel" value="-1"/>
  </vehicle>
  <vehicle id="EV41" type="EV_evehicle" depart="0.00">
    <route edges="11845184#1 -1124673997 24214089#2 24214089#3 24214089#4 11845212 328064918#0 328064918#1 328064918#2 67713120 159081774#0 159081774#1 710761408#0 710761408#1 710761408#2 36259518 935142777#0 935142777#1 935142777#2 935142777#3 36992117 25776568#0 25776568#1 -55495482#2 55495482#2"/>
    <param key="device.battery.chargeLevel" value="-1"/>
  </vehicle>
  <vehicle id="EV42" type="EV_evehicle" depart="0.00">
    <route edges="1110752826 710761407#0 710761407#1 710761407#2 -197160273#2 -197160273#1 -197160273#0 -710761406#1 -710761406#0 -4588215#3 -4588215#2 -4588215#1 -E24 -E23 -159081771 48859718#1 48859718#2 48859718#3 36259520#0 36259520#1 909825433 404598740 4396503#0 4396503#1 11845184#0 4611869#0 4611869#1 4611869#2 4611869#3 4611869#4 4611869#5 1147767967 1147767966#0 1147767966#1 1147767969 1147767968#0 1147767968#1 1147767968#2 1147767973 1147767977#0 1147767977#1 1147767977#2 1147767977#3 1147767977#4 1147767977#5 1147767977#6 1147767977#7 1147767982#0 1147767982#1 1147767989#0 -1147767993 -1147767994 -31416317#5 -31416317#4 -31416317#3 -31416317#2"/>
    <param key="device.battery.chargeLevel" value="-1"/>
  </vehicle>
  <vehicle id="EV43" type="EV_evehicle" depart="0.00">
    <route edges="E6 E5 1152880161 9657820#0 9657820#1 1152880160 36259520#0 36259520#1 909825433 404598740 4396503#0 4396503#1 11845184#0 4611869#0 4611869#1 4611869#2 4611869#3 4611869#4 4611869#5 1147767967 1147767966#0 1147767966#1 1147767969 1147767968#0 1147767968#1 1147767968#2 1147767973 1147767977#0 1147767977#1 1147767977#2 1147767977#3 1147767977#4 1147767977#5 1147767977#6 1147767977#7 1147767982#0"/>
    <param key="device.battery.chargeLevel" value="-1"/>
  </vehicle>
  <vehicle id="EV44" type="EV_evehicle" depart="0.00">
    <route edges="-1147767991#2 -1147767991#1 -1147767991#0 -1147767989#2 -1147767989#1 -1147767989#0 -1147767982#1 -1147767982#0 -1147767977#7 -1147767977#6 -1147767977#5 -1147767977#4 -1147767977#3 -1147767977#2 -4611867#4 -4611867#3 -4611867#2 -4611867#1 -4611867#0 -1147767897#2 -1147767897#1 -1147767897#0 -4611860#6 -1147767896"/>
    <param key="device.battery.chargeLevel" value="-1"/>
  </vehicle>
  <vehicle id="EV46" type="EV_evehicle" depart="0.00">
    <route edges="453379904 -453379904 -4396109 159081773 E11 E14 E15 1110756516"/>
    <param key="device.battery.chargeLevel" value="-1"/>
  </vehicle>
  <vehicle id="EV47" type="EV_evehicle" depart="0.00">
    <route edges="-1147767968#0 -1147767969 -1147767966#1 -1147767966#0 -1147767967 -4611869#5 -4611869#4 -4611869#3 -4611869#2 -4611869#1 -4611869#0 -8004043 24214089#3 24214089#4 11845212 328064918#0 328064918#1 328064918#2 67713120 159081774#0 159081774#1 710761408#0 710761408#1 710761408#2 E23 E24 4588215#1 4588215#2 4588215#3 -4588215#3 -4588215#2 -4588215#1 -E24"/>
    <param key="device.battery.chargeLevel" value="-1"/>
  </vehicle>
  <vehicle id="EV48" type="EV_evehicle" depart="0.00">
    <route edges="E5 1152880161 9657820#0 9657820#1 1152880160 36259520#0 36259520#1 909825433 404598740 4396503#0 4396503#1 11845184#0 11845184#1 11845184#2 11845184#3 11845184#4 1147755010 1147755011 1147755009 1147755006#0 1147755006#1 1147755005#0 1147755005#1 1147755005#2 1147755004 1147755003#0 1147755003#1 24214090#0 24214090#1 -35440679 466891841#0 466891841#1 466891841#2 1147768007#0 1147768007#1 1147768006#0 1147768006#1 1147768006#2"/>
    <param key="device.battery.chargeLevel" value="-1"/>
  </vehicle>
  <vehicle id="EV49" type="EV_evehicle" depart="0.00">
    <route edges="9657820#1 1152880160 36259520#0 36259520#1 909825433 404598740 4396503#0 4396503#1 159081779 176043805 11845130 475533027"/>
    <param key="device.battery.chargeLevel" value="-1"/>
  </vehicle>
  <vehicle id="EV50" type="EV_evehicle" depart="0.00">
    <route edges="-1057138146#2 -1057138146#1 -1057138146#0 466891838#0 466891838#1 466891838#2 466891838#3 1147755017#0 1147755017#1 1147755016 1147755014#0 1147755014#1 1147755014#2 1147755013#0 1147755013#1 328064919#0 328064919#1 328064919#2"/>
    <param key="device.battery.chargeLevel" value="-1"/>
  </vehicle>
  <vehicle id="EV51" type="EV_evehicle" depart="0.00">
    <route edges="26491989#5 838233264 8004042 1147755006#0 1147755006#1 1147755005#0 1147755005#1 1147755005#2 1147755004 1147755003#0 1147755003#1 24214090#0 24214090#1 -35440679 466891841#0 1147768009"/>
    <param key="device.battery.chargeLevel" value="-1"/>
  </vehicle>
  <vehicle id="EV52" type="EV_evehicle" depart="0.00">
    <route edges="-4611867#1 -4611867#0 -1147767897#2 -1147767897#1 -1147767897#0 -4611860#6 -4611860#5 -4611860#4 -4611860#3 -4611860#2 -4611860#1 -4611860#0 -1147767890 -8004042 328064919#2 1147755012 24214089#0 24214089#1 24214089#2 24214089#3 24214089#4 11845212 328064918#0 328064918#1 328064918#2 67713120 159081774#0 159081774#1 710761408#0 710761408#1 710761408#2 36259518 935142777#0 935142777#1 935142777#2 935142777#3 36992117 176043797"/>
    <param key="device.battery.chargeLevel" value="-1"/>
  </vehicle>
  <vehicle id="EV53" type="EV_evehicle" depart="0.00">
    <route edges="-1147768017#1 -1051546234 1051546234 1147768017#1 1147768017#2 1147768022 4611865#0 4611865#1 1147768020 466891841#0 466891841#1 466891841#2 1147768007#0 1147768007#1 1147768006#0 1147768006#1 1147768006#2 -691051319#2 -691051319#1 -691051319#0 -843876010 1124674005"/>
    <param key="device.battery.chargeLevel" value="-1"/>
  </vehicle>
  <vehicle id="EV54" type="EV_evehicle" depart="0.00">
    <route edges="1147755017#0 1147755017#1 1147755016 1147755014#0 1147755014#1 1147755014#2 1147755013#0 1147755013#1 328064919#0 328064919#1 328064919#2 1147755012 24214089#0 24214089#1 24214089#2 24214089#3 24214089#4 11845212 328064918#0 328064918#1 328064918#2 67713120 159081774#0 159081774#1 710761408#0 710761408#1 710761408#2 36259518 935142777#0 935142777#1 935142777#2 935142777#3 48859715#0 48859715#1 48859715#2 48859715#3 48859715#4 168928174 1151333061#0 1151333061#1 533509622 1110746456 1151333060 1151333059#0 1151333059#1 1079386620#0 1079386620#1 1079386620#2 1079386620#3 85255869#0"/>
    <param key="device.battery.chargeLevel" value="-1"/>
  </vehicle>
  <vehicle id="EV55" type="EV_evehicle" depart="0.00">
    <route edges="48859715#3 48859715#4 168928174 1151333061#0 1151333061#1 533509622 1110746456 1151333060 1151333059#0 1151333059#1 1079386620#0 1079386620#1 1079386620#2 1079386620#3 85255869#0 85255869#1 85255869#2 1110752486 1110752632#0 1110752632#1 -4597325#1 -4597325#0 -4597325#0.11 -4597325#0.18 -4597325#00"/>
    <param key="device.battery.chargeLevel" value="-1"/>
  </vehicle>
  <vehicle id="EV56" type="EV_evehicle" depart="0.00">
    <route edges="1147767977#5 -1147767979 1147767979 -1147767977#5 -1147767977#4 -1147767977#3 -1147767977#2 -1147767977#1 -1147767977#0 -1147767973 -1147767968#2 -1147767968#1 -1147767968#0 -1147767969 -1147767966#1 -1147767966#0 -1147767967 -4611869#5 -4611869#4 -4611869#3 -4611869#2 -4611869#1 -4611869#0 -8004043 24214089#3 24214089#4 11845212 328064918#0 328064918#1 328064918#2 67713120 159081774#0 159081774#1 -168927294 -1152880160 -9657820#1 -9657820#0 -1152880161 -E5 -E4 -E1 -159081776 160971199#0 160971199#1 160971199#2 160971199#3 -160971199#3 -160971199#2 -160971199#1"/>
    <param key="device.battery.chargeLevel" value="-1"/>
  </vehicle>
  <vehicle id="EV57" type="EV_evehicle" depart="0.00">
    <route edges="67718316#1 36259509#0 36259509#1 36259509#2 309644159#0 309644159#1 309644159#2 309644159#3 160971191#0 160971191#1 160971191#2 160971198#0 160971198#1 160971198#2 -160971199#3 -160971199#2 -160971199#1 -160971199#0 55495482#0 55495482#1 55495482#2 28108856#0 28108856#1 28108856#2 36992116 935142777#3 48859715#0 48859715#1 48859715#2 48859715#3"/>
    <param key="device.battery.chargeLevel" value="-1"/>
  </vehicle>
  <vehicle id="EV61" type="EV_evehicle" depart="0.00">
    <route edges="4396109 453379904 -453379904 -4396109 159081773 404598738#0 404598738#1 404598738#2 4396116 404598740 4396503#0 4396503#1 11845184#0 11845184#1 11845184#2 11845184#3 11845184#4 1147755010 1147755011 1147755009 1147755006#0 1147755006#1 -1124674005 843876010 691051319#0 691051319#1 691051319#2 1147768006#3"/>
    <param key="device.battery.chargeLevel" value="-1"/>
  </vehicle>
  <vehicle id="EV62" type="EV_evehicle" depart="0.00">